<?xml version="1.0" encoding="UTF-8"?>

<!-- generated on 05/29/19 00:08:38 by Eclipse SUMO netedit Version 1.2.0
<configuration xmlns:xsi="http://www.w3.org/2001/XMLSchema-instance" xsi:noNamespaceSchemaLocation="http://sumo.dlr.de/xsd/netconvertConfiguration.xsd">

    <input>
        <sumo-net-file value="C:\Users\Lenovo\Documents\pdfler\okul\BAHAR%20-%202019\Vehicular%20Networks\proje\sumo-tests\traci_tls\data\cross.net.xml"/>
    </input>

    <output>
        <output-file value="C:\Users\Lenovo\Documents\pdfler\okul\BAHAR%20-%202019\Vehicular%20Networks\proje\sumo-tests\traci_tls\data\cross.net.xml"/>
    </output>

    <processing>
        <geometry.max-grade.fix value="false"/>
        <offset.disable-normalization value="true"/>
        <lefthand value="false"/>
    </processing>

    <junctions>
        <no-turnarounds value="true"/>
        <junctions.corner-detail value="0"/>
        <junctions.limit-turn-speed value="-1"/>
        <rectangular-lane-cut value="false"/>
    </junctions>

    <pedestrian>
        <walkingareas value="false"/>
    </pedestrian>

</configuration>
-->

<net version="1.1" xmlns:xsi="http://www.w3.org/2001/XMLSchema-instance" xsi:noNamespaceSchemaLocation="http://sumo.dlr.de/xsd/net_file.xsd">

    <location netOffset="510.00,510.00" convBoundary="0.00,0.00,1020.00,1020.00" origBoundary="-510.00,-510.00,510.00,510.00" projParameter="!"/>

    <edge id=":0_0" function="internal">
        <lane id=":0_0_0" index="0" speed="15.28" length="9.03" shape="508.40,530.00 508.05,527.55 507.00,525.80 505.25,524.75 502.80,524.40"/>
    </edge>
    <edge id=":0_1" function="internal">
        <lane id=":0_1_0" index="0" speed="15.28" length="11.73" shape="508.40,530.00 508.05,526.15 507.00,523.40 505.25,521.75 502.80,521.20"/>
    </edge>
    <edge id=":0_2" function="internal">
        <lane id=":0_2_0" index="0" speed="15.28" length="14.57" shape="508.40,530.00 508.05,524.75 507.00,521.00 505.25,518.75 502.80,518.00"/>
    </edge>
    <edge id=":0_3" function="internal">
        <lane id=":0_3_0" index="0" speed="15.28" length="40.00" shape="508.40,530.00 508.40,490.00"/>
    </edge>
    <edge id=":0_4" function="internal">
        <lane id=":0_4_0" index="0" speed="15.28" length="15.91" shape="508.40,530.00 508.95,519.15 510.00,514.22"/>
    </edge>
    <edge id=":0_5" function="internal">
        <lane id=":0_5_0" index="0" speed="15.28" length="13.89" shape="508.40,530.00 508.95,520.55 510.00,516.25"/>
    </edge>
    <edge id=":0_26" function="internal">
        <lane id=":0_26_0" index="0" speed="15.28" length="12.43" shape="510.00,514.22 510.60,511.40 513.35,506.75 517.20,505.20"/>
    </edge>
    <edge id=":0_27" function="internal">
        <lane id=":0_27_0" index="0" speed="15.28" length="11.50" shape="510.00,516.25 510.60,513.80 513.35,509.75 517.20,508.40"/>
    </edge>
    <edge id=":0_6" function="internal">
        <lane id=":0_6_0" index="0" speed="15.28" length="9.03" shape="517.20,524.40 514.75,524.75 513.00,525.80 511.95,527.55 511.60,530.00"/>
    </edge>
    <edge id=":0_7" function="internal">
        <lane id=":0_7_0" index="0" speed="15.28" length="14.40" shape="517.20,524.40 502.80,524.40"/>
        <lane id=":0_7_1" index="1" speed="15.28" length="14.40" shape="517.20,521.20 502.80,521.20"/>
        <lane id=":0_7_2" index="2" speed="15.28" length="14.40" shape="517.20,518.00 502.80,518.00"/>
        <lane id=":0_7_3" index="3" speed="15.28" length="14.40" shape="517.20,514.80 502.80,514.80"/>
        <lane id=":0_7_4" index="4" speed="15.28" length="14.40" shape="517.20,511.60 502.80,511.60"/>
    </edge>
    <edge id=":0_12" function="internal">
        <lane id=":0_12_0" index="0" speed="15.28" length="4.38" shape="517.20,511.60 513.35,510.25 513.18,510.00"/>
    </edge>
    <edge id=":0_28" function="internal">
        <lane id=":0_28_0" index="0" speed="15.28" length="21.01" shape="513.18,510.00 510.60,506.20 508.95,499.45 508.40,490.00"/>
    </edge>
    <edge id=":0_13" function="internal">
        <lane id=":0_13_0" index="0" speed="15.28" length="9.03" shape="511.60,490.00 511.95,492.45 513.00,494.20 514.75,495.25 517.20,495.60"/>
    </edge>
    <edge id=":0_14" function="internal">
        <lane id=":0_14_0" index="0" speed="15.28" length="11.73" shape="511.60,490.00 511.95,493.85 513.00,496.60 514.75,498.25 517.20,498.80"/>
    </edge>
    <edge id=":0_15" function="internal">
        <lane id=":0_15_0" index="0" speed="15.28" length="14.57" shape="511.60,490.00 511.95,495.25 513.00,499.00 514.75,501.25 517.20,502.00"/>
    </edge>
    <edge id=":0_16" function="internal">
        <lane id=":0_16_0" index="0" speed="15.28" length="40.00" shape="511.60,490.00 511.60,530.00"/>
    </edge>
    <edge id=":0_17" function="internal">
        <lane id=":0_17_0" index="0" speed="15.28" length="15.91" shape="511.60,490.00 511.05,500.85 510.00,505.78"/>
    </edge>
    <edge id=":0_18" function="internal">
        <lane id=":0_18_0" index="0" speed="15.28" length="13.89" shape="511.60,490.00 511.05,499.45 510.00,503.75"/>
    </edge>
    <edge id=":0_29" function="internal">
        <lane id=":0_29_0" index="0" speed="15.28" length="12.43" shape="510.00,505.78 509.40,508.60 506.65,513.25 502.80,514.80"/>
    </edge>
    <edge id=":0_30" function="internal">
        <lane id=":0_30_0" index="0" speed="15.28" length="11.50" shape="510.00,503.75 509.40,506.20 506.65,510.25 502.80,511.60"/>
    </edge>
    <edge id=":0_19" function="internal">
        <lane id=":0_19_0" index="0" speed="15.28" length="9.03" shape="502.80,495.60 505.25,495.25 507.00,494.20 508.05,492.45 508.40,490.00"/>
    </edge>
    <edge id=":0_20" function="internal">
        <lane id=":0_20_0" index="0" speed="15.28" length="14.40" shape="502.80,495.60 517.20,495.60"/>
        <lane id=":0_20_1" index="1" speed="15.28" length="14.40" shape="502.80,498.80 517.20,498.80"/>
        <lane id=":0_20_2" index="2" speed="15.28" length="14.40" shape="502.80,502.00 517.20,502.00"/>
        <lane id=":0_20_3" index="3" speed="15.28" length="14.40" shape="502.80,505.20 517.20,505.20"/>
        <lane id=":0_20_4" index="4" speed="15.28" length="14.40" shape="502.80,508.40 517.20,508.40"/>
    </edge>
    <edge id=":0_25" function="internal">
        <lane id=":0_25_0" index="0" speed="15.28" length="4.38" shape="502.80,508.40 506.65,509.75 506.82,510.00"/>
    </edge>
    <edge id=":0_31" function="internal">
        <lane id=":0_31_0" index="0" speed="15.28" length="21.01" shape="506.82,510.00 509.40,513.80 511.05,520.55 511.60,530.00"/>
    </edge>
    <edge id=":1_0" function="internal">
        <lane id=":1_0_0" index="0" speed="15.28" length="16.31" shape="14.00,524.40 10.27,522.40 9.04,518.00 8.30,513.60 6.00,511.60"/>
    </edge>
    <edge id=":1_1" function="internal">
        <lane id=":1_1_0" index="0" speed="15.28" length="2.34" shape="14.00,511.60 12.80,510.80 12.40,510.00"/>
    </edge>
    <edge id=":1_8" function="internal">
        <lane id=":1_8_0" index="0" speed="15.28" length="2.34" shape="12.40,510.00 12.80,509.20 14.00,508.40"/>
    </edge>
    <edge id=":1_2" function="internal">
        <lane id=":1_2_0" index="0" speed="15.28" length="11.48" shape="6.00,508.40 8.30,506.40 9.04,502.00 10.27,497.60 14.00,495.60"/>
        <lane id=":1_2_1" index="1" speed="15.28" length="11.48" shape="6.00,508.40 8.48,506.90 9.53,503.60 10.82,500.30 14.00,498.80"/>
        <lane id=":1_2_2" index="2" speed="15.28" length="11.48" shape="6.00,508.40 8.64,507.40 9.95,505.20 11.29,503.00 14.00,502.00"/>
        <lane id=":1_2_3" index="3" speed="15.28" length="11.48" shape="6.00,508.40 8.46,507.90 10.00,506.80 11.54,505.70 14.00,505.20"/>
        <lane id=":1_2_4" index="4" speed="15.28" length="11.48" shape="6.00,508.40 14.00,508.40"/>
    </edge>
    <edge id=":1_7" function="internal">
        <lane id=":1_7_0" index="0" speed="15.28" length="3.02" shape="6.00,508.40 7.20,509.20 7.60,510.00 7.30,510.61"/>
    </edge>
    <edge id=":1_9" function="internal">
        <lane id=":1_9_0" index="0" speed="15.28" length="1.66" shape="7.30,510.61 7.20,510.80 6.00,511.60"/>
    </edge>
    <edge id=":2_0" function="internal">
        <lane id=":2_0_0" index="0" speed="15.28" length="11.48" shape="1014.00,511.60 1011.70,513.60 1010.96,518.00 1009.73,522.40 1006.00,524.40"/>
        <lane id=":2_0_1" index="1" speed="15.28" length="11.48" shape="1014.00,511.60 1011.52,513.10 1010.47,516.40 1009.18,519.70 1006.00,521.20"/>
        <lane id=":2_0_2" index="2" speed="15.28" length="11.48" shape="1014.00,511.60 1011.36,512.60 1010.05,514.80 1008.71,517.00 1006.00,518.00"/>
        <lane id=":2_0_3" index="3" speed="15.28" length="11.48" shape="1014.00,511.60 1011.54,512.10 1010.00,513.20 1008.46,514.30 1006.00,514.80"/>
        <lane id=":2_0_4" index="4" speed="15.28" length="11.48" shape="1014.00,511.60 1006.00,511.60"/>
    </edge>
    <edge id=":2_5" function="internal">
        <lane id=":2_5_0" index="0" speed="15.28" length="3.02" shape="1014.00,511.60 1012.80,510.80 1012.40,510.00 1012.70,509.39"/>
    </edge>
    <edge id=":2_8" function="internal">
        <lane id=":2_8_0" index="0" speed="15.28" length="1.66" shape="1012.70,509.39 1012.80,509.20 1014.00,508.40"/>
    </edge>
    <edge id=":2_6" function="internal">
        <lane id=":2_6_0" index="0" speed="15.28" length="16.31" shape="1006.00,495.60 1009.73,497.60 1010.96,502.00 1011.70,506.40 1014.00,508.40"/>
    </edge>
    <edge id=":2_7" function="internal">
        <lane id=":2_7_0" index="0" speed="15.28" length="2.34" shape="1006.00,508.40 1007.20,509.20 1007.60,510.00"/>
    </edge>
    <edge id=":2_9" function="internal">
        <lane id=":2_9_0" index="0" speed="15.28" length="2.34" shape="1007.60,510.00 1007.20,510.80 1006.00,511.60"/>
    </edge>
    <edge id=":3_0" function="internal">
        <lane id=":3_0_0" index="0" speed="15.28" length="0.10" shape="508.40,10.00 508.40,10.00"/>
    </edge>
    <edge id=":3_1" function="internal">
        <lane id=":3_1_0" index="0" speed="15.28" length="2.34" shape="508.40,10.00 509.20,8.80 510.00,8.40"/>
    </edge>
    <edge id=":3_4" function="internal">
        <lane id=":3_4_0" index="0" speed="15.28" length="2.34" shape="510.00,8.40 510.80,8.80 511.60,10.00"/>
    </edge>
    <edge id=":3_2" function="internal">
        <lane id=":3_2_0" index="0" speed="15.28" length="0.10" shape="511.60,10.00 511.60,10.00"/>
    </edge>
    <edge id=":3_3" function="internal">
        <lane id=":3_3_0" index="0" speed="15.28" length="2.34" shape="511.60,10.00 510.80,11.20 510.00,11.60"/>
    </edge>
    <edge id=":3_5" function="internal">
        <lane id=":3_5_0" index="0" speed="15.28" length="2.34" shape="510.00,11.60 509.20,11.20 508.40,10.00"/>
    </edge>
    <edge id=":4_0" function="internal">
        <lane id=":4_0_0" index="0" speed="15.28" length="0.10" shape="508.40,1010.00 508.40,1010.00"/>
    </edge>
    <edge id=":4_1" function="internal">
        <lane id=":4_1_0" index="0" speed="15.28" length="2.34" shape="508.40,1010.00 509.20,1008.80 510.00,1008.40"/>
    </edge>
    <edge id=":4_4" function="internal">
        <lane id=":4_4_0" index="0" speed="15.28" length="2.34" shape="510.00,1008.40 510.80,1008.80 511.60,1010.00"/>
    </edge>
    <edge id=":4_2" function="internal">
        <lane id=":4_2_0" index="0" speed="15.28" length="0.10" shape="511.60,1010.00 511.60,1010.00"/>
    </edge>
    <edge id=":4_3" function="internal">
        <lane id=":4_3_0" index="0" speed="15.28" length="2.34" shape="511.60,1010.00 510.80,1011.20 510.00,1011.60"/>
    </edge>
    <edge id=":4_5" function="internal">
        <lane id=":4_5_0" index="0" speed="15.28" length="2.34" shape="510.00,1011.60 509.20,1011.20 508.40,1010.00"/>
    </edge>
    <edge id=":51_0" function="internal">
        <lane id=":51_0_0" index="0" speed="15.28" length="4.67" shape="0.00,511.60 -1.20,510.80 -1.60,510.00 -1.20,509.20 0.00,508.40"/>
    </edge>
    <edge id=":52_0" function="internal">
        <lane id=":52_0_0" index="0" speed="15.28" length="4.67" shape="1020.00,508.40 1021.20,509.20 1021.60,510.00 1021.20,510.80 1020.00,511.60"/>
    </edge>
    <edge id=":53_0" function="internal">
        <lane id=":53_0_0" index="0" speed="15.28" length="4.67" shape="508.40,0.00 509.20,-1.20 510.00,-1.60 510.80,-1.20 511.60,0.00"/>
    </edge>
    <edge id=":54_0" function="internal">
        <lane id=":54_0_0" index="0" speed="15.28" length="4.67" shape="511.60,1020.00 510.80,1021.20 510.00,1021.60 509.20,1021.20 508.40,1020.00"/>
    </edge>

    <edge id="1i" from="1" to="0" priority="78">
        <lane id="1i_0" index="0" speed="19.44" length="488.80" shape="14.00,495.60 502.80,495.60"/>
        <lane id="1i_1" index="1" speed="19.44" length="488.80" shape="14.00,498.80 502.80,498.80"/>
        <lane id="1i_2" index="2" speed="19.44" length="488.80" shape="14.00,502.00 502.80,502.00"/>
        <lane id="1i_3" index="3" speed="19.44" length="488.80" shape="14.00,505.20 502.80,505.20"/>
        <lane id="1i_4" index="4" speed="19.44" length="488.80" shape="14.00,508.40 502.80,508.40"/>
    </edge>
    <edge id="1o" from="0" to="1" priority="46">
        <lane id="1o_0" index="0" speed="11.11" length="488.80" shape="502.80,524.40 14.00,524.40"/>
        <lane id="1o_1" index="1" speed="11.11" length="488.80" shape="502.80,521.20 14.00,521.20"/>
        <lane id="1o_2" index="2" speed="11.11" length="488.80" shape="502.80,518.00 14.00,518.00"/>
        <lane id="1o_3" index="3" speed="11.11" length="488.80" shape="502.80,514.80 14.00,514.80"/>
        <lane id="1o_4" index="4" speed="11.11" length="488.80" shape="502.80,511.60 14.00,511.60"/>
    </edge>
    <edge id="2i" from="2" to="0" priority="78">
        <lane id="2i_0" index="0" speed="19.44" length="488.80" shape="1006.00,524.40 517.20,524.40"/>
        <lane id="2i_1" index="1" speed="19.44" length="488.80" shape="1006.00,521.20 517.20,521.20"/>
        <lane id="2i_2" index="2" speed="19.44" length="488.80" shape="1006.00,518.00 517.20,518.00"/>
        <lane id="2i_3" index="3" speed="19.44" length="488.80" shape="1006.00,514.80 517.20,514.80"/>
        <lane id="2i_4" index="4" speed="19.44" length="488.80" shape="1006.00,511.60 517.20,511.60"/>
    </edge>
    <edge id="2o" from="0" to="2" priority="46">
        <lane id="2o_0" index="0" speed="11.11" length="488.80" shape="517.20,495.60 1006.00,495.60"/>
        <lane id="2o_1" index="1" speed="11.11" length="488.80" shape="517.20,498.80 1006.00,498.80"/>
        <lane id="2o_2" index="2" speed="11.11" length="488.80" shape="517.20,502.00 1006.00,502.00"/>
        <lane id="2o_3" index="3" speed="11.11" length="488.80" shape="517.20,505.20 1006.00,505.20"/>
        <lane id="2o_4" index="4" speed="11.11" length="488.80" shape="517.20,508.40 1006.00,508.40"/>
    </edge>
    <edge id="3i" from="3" to="0" priority="78">
        <lane id="3i_0" index="0" speed="19.44" length="480.00" shape="511.60,10.00 511.60,490.00"/>
    </edge>
    <edge id="3o" from="0" to="3" priority="46">
        <lane id="3o_0" index="0" speed="11.11" length="480.00" shape="508.40,490.00 508.40,10.00"/>
    </edge>
    <edge id="4i" from="4" to="0" priority="78">
        <lane id="4i_0" index="0" speed="19.44" length="480.00" shape="508.40,1010.00 508.40,530.00"/>
    </edge>
    <edge id="4o" from="0" to="4" priority="46">
        <lane id="4o_0" index="0" speed="11.11" length="480.00" shape="511.60,530.00 511.60,1010.00"/>
    </edge>
    <edge id="51i" from="1" to="51" priority="78">
        <lane id="51i_0" index="0" speed="19.44" length="6.00" shape="6.00,511.60 0.00,511.60"/>
    </edge>
    <edge id="51o" from="51" to="1" priority="46">
        <lane id="51o_0" index="0" speed="11.11" length="6.00" shape="0.00,508.40 6.00,508.40"/>
    </edge>
    <edge id="52i" from="2" to="52" priority="78">
        <lane id="52i_0" index="0" speed="19.44" length="6.00" shape="1014.00,508.40 1020.00,508.40"/>
    </edge>
    <edge id="52o" from="52" to="2" priority="46">
        <lane id="52o_0" index="0" speed="11.11" length="6.00" shape="1020.00,511.60 1014.00,511.60"/>
    </edge>
    <edge id="53i" from="3" to="53" priority="78">
        <lane id="53i_0" index="0" speed="19.44" length="10.00" shape="508.40,10.00 508.40,0.00"/>
    </edge>
    <edge id="53o" from="53" to="3" priority="46">
        <lane id="53o_0" index="0" speed="11.11" length="10.00" shape="511.60,0.00 511.60,10.00"/>
    </edge>
    <edge id="54i" from="4" to="54" priority="78">
        <lane id="54i_0" index="0" speed="19.44" length="10.00" shape="511.60,1010.00 511.60,1020.00"/>
    </edge>
    <edge id="54o" from="54" to="4" priority="46">
        <lane id="54o_0" index="0" speed="11.11" length="10.00" shape="508.40,1020.00 508.40,1010.00"/>
    </edge>

    <tlLogic id="0" type="static" programID="0" offset="0">
        <phase duration="40" state="rrrrrrGGGGGGgrrrrrrGGGGGGg"/>
        <phase duration="5"  state="rrrrrryyyyyyyrrrrrryyyyyyy"/>
        <phase duration="40" state="GGGGggrrrrrrrGGGGggrrrrrrr"/>
        <phase duration="5"  state="yyyyyyrrrrrrryyyyyyrrrrrrr"/>
    </tlLogic>

    <junction id="0" type="traffic_light" x="510.00" y="510.00" incLanes="4i_0 2i_0 2i_1 2i_2 2i_3 2i_4 3i_0 1i_0 1i_1 1i_2 1i_3 1i_4" intLanes=":0_0_0 :0_1_0 :0_2_0 :0_3_0 :0_26_0 :0_27_0 :0_6_0 :0_7_0 :0_7_1 :0_7_2 :0_7_3 :0_7_4 :0_28_0 :0_13_0 :0_14_0 :0_15_0 :0_16_0 :0_29_0 :0_30_0 :0_19_0 :0_20_0 :0_20_1 :0_20_2 :0_20_3 :0_20_4 :0_31_0" shape="506.80,530.00 513.20,530.00 517.20,526.00 517.20,494.00 513.20,490.00 506.80,490.00 502.80,494.00 502.80,526.00">
        <request index="0"  response="00000000000000111110000000" foes="00000000000000111110000000" cont="0"/>
        <request index="1"  response="00000000000000111110000000" foes="00000000000000111110000000" cont="0"/>
        <request index="2"  response="00000000000000111110000000" foes="00000000000000111110000000" cont="0"/>
        <request index="3"  response="11111110000001111110000000" foes="11111111100001111110000000" cont="0"/>
        <request index="4"  response="11111100010001111110000000" foes="11111100010001111110000000" cont="1"/>
        <request index="5"  response="11111100010001111110000000" foes="11111100010001111110000000" cont="1"/>
        <request index="6"  response="00000000000000000000000000" foes="10000000010000000000000000" cont="0"/>
        <request index="7"  response="00000001100000000000110000" foes="10000001110000000000111111" cont="0"/>
        <request index="8"  response="00000001100000000000110000" foes="10000001110000000000111111" cont="0"/>
        <request index="9"  response="00000001100000000000110000" foes="10000001110000000000111111" cont="0"/>
        <request index="10" response="00000001100000000000110000" foes="10000001110000000000111111" cont="0"/>
        <request index="11" response="00000001100000000000110000" foes="10000001110000000000111111" cont="0"/>
        <request index="12" response="01111111100000000000110000" foes="01111111110000000000111000" cont="1"/>
        <request index="13" response="01111100000000000000000000" foes="01111100000000000000000000" cont="0"/>
        <request index="14" response="01111100000000000000000000" foes="01111100000000000000000000" cont="0"/>
        <request index="15" response="01111100000000000000000000" foes="01111100000000000000000000" cont="0"/>
        <request index="16" response="11111100000001111111000000" foes="11111100000001111111110000" cont="0"/>
        <request index="17" response="11111100000001111110001000" foes="11111100000001111110001000" cont="1"/>
        <request index="18" response="11111100000001111110001000" foes="11111100000001111110001000" cont="1"/>
        <request index="19" response="00000000000000000000000000" foes="00000000000001000000001000" cont="0"/>
        <request index="20" response="00000001100000000000110000" foes="00000001111111000000111000" cont="0"/>
        <request index="21" response="00000001100000000000110000" foes="00000001111111000000111000" cont="0"/>
        <request index="22" response="00000001100000000000110000" foes="00000001111111000000111000" cont="0"/>
        <request index="23" response="00000001100000000000110000" foes="00000001111111000000111000" cont="0"/>
        <request index="24" response="00000001100000000000110000" foes="00000001111111000000111000" cont="0"/>
        <request index="25" response="00000001100000111111110000" foes="00000001110000111111111000" cont="1"/>
    </junction>
    <junction id="1" type="priority" x="10.00" y="510.00" incLanes="1o_0 1o_1 1o_2 1o_3 1o_4 51o_0" intLanes=":1_0_0 :1_8_0 :1_2_0 :1_2_1 :1_2_2 :1_2_3 :1_2_4 :1_9_0" shape="14.00,526.00 14.00,494.00 6.00,506.80 6.00,513.20">
        <request index="0" response="00000000" foes="10000000" cont="0"/>
        <request index="1" response="01111100" foes="01111100" cont="1"/>
        <request index="2" response="00000000" foes="00000010" cont="0"/>
        <request index="3" response="00000000" foes="00000010" cont="0"/>
        <request index="4" response="00000000" foes="00000010" cont="0"/>
        <request index="5" response="00000000" foes="00000010" cont="0"/>
        <request index="6" response="00000000" foes="00000010" cont="0"/>
        <request index="7" response="00000001" foes="00000001" cont="1"/>
    </junction>
    <junction id="2" type="priority" x="1010.00" y="510.00" incLanes="52o_0 2o_0 2o_1 2o_2 2o_3 2o_4" intLanes=":2_0_0 :2_0_1 :2_0_2 :2_0_3 :2_0_4 :2_8_0 :2_6_0 :2_9_0" shape="1014.00,513.20 1014.00,506.80 1006.00,494.00 1006.00,526.00">
        <request index="0" response="00000000" foes="10000000" cont="0"/>
        <request index="1" response="00000000" foes="10000000" cont="0"/>
        <request index="2" response="00000000" foes="10000000" cont="0"/>
        <request index="3" response="00000000" foes="10000000" cont="0"/>
        <request index="4" response="00000000" foes="10000000" cont="0"/>
        <request index="5" response="01000000" foes="01000000" cont="1"/>
        <request index="6" response="00000000" foes="00100000" cont="0"/>
        <request index="7" response="00011111" foes="00011111" cont="1"/>
    </junction>
    <junction id="3" type="priority" x="510.00" y="10.00" incLanes="3o_0 53o_0" intLanes=":3_0_0 :3_4_0 :3_2_0 :3_5_0" shape="506.80,10.00 513.20,10.00 506.80,10.00">
        <request index="0" response="0000" foes="1000" cont="0"/>
        <request index="1" response="0100" foes="0100" cont="1"/>
        <request index="2" response="0000" foes="0010" cont="0"/>
        <request index="3" response="0001" foes="0001" cont="1"/>
    </junction>
    <junction id="4" type="priority" x="510.00" y="1010.00" incLanes="54o_0 4o_0" intLanes=":4_0_0 :4_4_0 :4_2_0 :4_5_0" shape="506.80,1010.00 513.20,1010.00 506.80,1010.00">
        <request index="0" response="0000" foes="1000" cont="0"/>
        <request index="1" response="0100" foes="0100" cont="1"/>
        <request index="2" response="0000" foes="0010" cont="0"/>
        <request index="3" response="0001" foes="0001" cont="1"/>
    </junction>
    <junction id="51" type="priority" x="0.00" y="510.00" incLanes="51i_0" intLanes=":51_0_0" shape="0.00,510.00 0.00,513.20 0.00,510.00">
        <request index="0" response="0" foes="0" cont="0"/>
    </junction>
    <junction id="52" type="priority" x="1020.00" y="510.00" incLanes="52i_0" intLanes=":52_0_0" shape="1020.00,510.00 1020.00,506.80 1020.00,510.00">
        <request index="0" response="0" foes="0" cont="0"/>
    </junction>
    <junction id="53" type="priority" x="510.00" y="0.00" incLanes="53i_0" intLanes=":53_0_0" shape="510.00,0.00 506.80,0.00 510.00,0.00">
        <request index="0" response="0" foes="0" cont="0"/>
    </junction>
    <junction id="54" type="priority" x="510.00" y="1020.00" incLanes="54i_0" intLanes=":54_0_0" shape="510.00,1020.00 513.20,1020.00 510.00,1020.00">
        <request index="0" response="0" foes="0" cont="0"/>
    </junction>

    <junction id=":0_26_0" type="internal" x="510.00" y="514.22" incLanes=":0_4_0 3i_0" intLanes=":0_7_0 :0_7_1 :0_7_2 :0_7_3 :0_7_4 :0_12_0 :0_13_0 :0_14_0 :0_15_0 :0_16_0 :0_20_0 :0_20_1 :0_20_2 :0_20_3 :0_20_4 :0_25_0"/>
    <junction id=":0_27_0" type="internal" x="510.00" y="516.25" incLanes=":0_5_0 3i_0" intLanes=":0_7_0 :0_7_1 :0_7_2 :0_7_3 :0_7_4 :0_12_0 :0_13_0 :0_14_0 :0_15_0 :0_16_0 :0_20_0 :0_20_1 :0_20_2 :0_20_3 :0_20_4 :0_25_0"/>
    <junction id=":0_28_0" type="internal" x="513.18" y="510.00" incLanes=":0_12_0 1i_0 1i_1 1i_2 1i_3 1i_4" intLanes=":0_3_0 :0_4_0 :0_5_0 :0_16_0 :0_17_0 :0_18_0 :0_19_0 :0_20_0 :0_20_1 :0_20_2 :0_20_3 :0_20_4"/>
    <junction id=":0_29_0" type="internal" x="510.00" y="505.78" incLanes=":0_17_0 4i_0" intLanes=":0_0_0 :0_1_0 :0_2_0 :0_3_0 :0_7_0 :0_7_1 :0_7_2 :0_7_3 :0_7_4 :0_12_0 :0_20_0 :0_20_1 :0_20_2 :0_20_3 :0_20_4 :0_25_0"/>
    <junction id=":0_30_0" type="internal" x="510.00" y="503.75" incLanes=":0_18_0 4i_0" intLanes=":0_0_0 :0_1_0 :0_2_0 :0_3_0 :0_7_0 :0_7_1 :0_7_2 :0_7_3 :0_7_4 :0_12_0 :0_20_0 :0_20_1 :0_20_2 :0_20_3 :0_20_4 :0_25_0"/>
    <junction id=":0_31_0" type="internal" x="506.82" y="510.00" incLanes=":0_25_0 2i_0 2i_1 2i_2 2i_3 2i_4" intLanes=":0_3_0 :0_4_0 :0_5_0 :0_6_0 :0_7_0 :0_7_1 :0_7_2 :0_7_3 :0_7_4 :0_16_0 :0_17_0 :0_18_0"/>
    <junction id=":1_8_0" type="internal" x="12.40" y="510.00" incLanes=":1_1_0 51o_0" intLanes=":1_2_0 :1_2_1 :1_2_2 :1_2_3 :1_2_4"/>
    <junction id=":1_9_0" type="internal" x="7.30" y="510.61" incLanes=":1_7_0 1o_0" intLanes=":1_0_0"/>
    <junction id=":2_8_0" type="internal" x="1012.70" y="509.39" incLanes=":2_5_0 2o_0" intLanes=":2_6_0"/>
    <junction id=":2_9_0" type="internal" x="1007.60" y="510.00" incLanes=":2_7_0 52o_0" intLanes=":2_0_0 :2_0_1 :2_0_2 :2_0_3 :2_0_4"/>
    <junction id=":3_4_0" type="internal" x="510.00" y="8.40" incLanes=":3_1_0 53o_0" intLanes=":3_2_0"/>
    <junction id=":3_5_0" type="internal" x="510.00" y="11.60" incLanes=":3_3_0 3o_0" intLanes=":3_0_0"/>
    <junction id=":4_4_0" type="internal" x="510.00" y="1008.40" incLanes=":4_1_0 4o_0" intLanes=":4_2_0"/>
    <junction id=":4_5_0" type="internal" x="510.00" y="1011.60" incLanes=":4_3_0 54o_0" intLanes=":4_0_0"/>

    <connection from="1i" to="3o" fromLane="0" toLane="0" via=":0_19_0" tl="0" linkIndex="19" dir="r" state="O"/>
    <connection from="1i" to="2o" fromLane="0" toLane="0" via=":0_20_0" tl="0" linkIndex="20" dir="s" state="O"/>
    <connection from="1i" to="2o" fromLane="1" toLane="1" via=":0_20_1" tl="0" linkIndex="21" dir="s" state="O"/>
    <connection from="1i" to="2o" fromLane="2" toLane="2" via=":0_20_2" tl="0" linkIndex="22" dir="s" state="O"/>
    <connection from="1i" to="2o" fromLane="3" toLane="3" via=":0_20_3" tl="0" linkIndex="23" dir="s" state="O"/>
    <connection from="1i" to="2o" fromLane="4" toLane="4" via=":0_20_4" tl="0" linkIndex="24" dir="s" state="O"/>
    <connection from="1i" to="4o" fromLane="4" toLane="0" via=":0_25_0" tl="0" linkIndex="25" dir="l" state="o"/>
    <connection from="1o" to="51i" fromLane="0" toLane="0" via=":1_0_0" dir="s" state="M"/>
    <connection from="1o" to="1i" fromLane="4" toLane="4" via=":1_1_0" dir="t" state="m"/>
    <connection from="2i" to="4o" fromLane="0" toLane="0" via=":0_6_0" tl="0" linkIndex="6" dir="r" state="O"/>
    <connection from="2i" to="1o" fromLane="0" toLane="0" via=":0_7_0" tl="0" linkIndex="7" dir="s" state="O"/>
    <connection from="2i" to="1o" fromLane="1" toLane="1" via=":0_7_1" tl="0" linkIndex="8" dir="s" state="O"/>
    <connection from="2i" to="1o" fromLane="2" toLane="2" via=":0_7_2" tl="0" linkIndex="9" dir="s" state="O"/>
    <connection from="2i" to="1o" fromLane="3" toLane="3" via=":0_7_3" tl="0" linkIndex="10" dir="s" state="O"/>
    <connection from="2i" to="1o" fromLane="4" toLane="4" via=":0_7_4" tl="0" linkIndex="11" dir="s" state="O"/>
    <connection from="2i" to="3o" fromLane="4" toLane="0" via=":0_12_0" tl="0" linkIndex="12" dir="l" state="o"/>
    <connection from="2o" to="52i" fromLane="0" toLane="0" via=":2_6_0" dir="s" state="M"/>
    <connection from="2o" to="2i" fromLane="4" toLane="4" via=":2_7_0" dir="t" state="m"/>
    <connection from="3i" to="2o" fromLane="0" toLane="0" via=":0_13_0" tl="0" linkIndex="13" dir="r" state="o"/>
    <connection from="3i" to="2o" fromLane="0" toLane="1" via=":0_14_0" tl="0" linkIndex="14" dir="r" state="o"/>
    <connection from="3i" to="2o" fromLane="0" toLane="2" via=":0_15_0" tl="0" linkIndex="15" dir="r" state="o"/>
    <connection from="3i" to="4o" fromLane="0" toLane="0" via=":0_16_0" tl="0" linkIndex="16" dir="s" state="o"/>
    <connection from="3i" to="1o" fromLane="0" toLane="3" via=":0_17_0" tl="0" linkIndex="17" dir="l" state="o"/>
    <connection from="3i" to="1o" fromLane="0" toLane="4" via=":0_18_0" tl="0" linkIndex="18" dir="l" state="o"/>
    <connection from="3o" to="53i" fromLane="0" toLane="0" via=":3_0_0" dir="s" state="M"/>
    <connection from="3o" to="3i" fromLane="0" toLane="0" via=":3_1_0" dir="t" state="m"/>
    <connection from="4i" to="1o" fromLane="0" toLane="0" via=":0_0_0" tl="0" linkIndex="0" dir="r" state="o"/>
    <connection from="4i" to="1o" fromLane="0" toLane="1" via=":0_1_0" tl="0" linkIndex="1" dir="r" state="o"/>
    <connection from="4i" to="1o" fromLane="0" toLane="2" via=":0_2_0" tl="0" linkIndex="2" dir="r" state="o"/>
    <connection from="4i" to="3o" fromLane="0" toLane="0" via=":0_3_0" tl="0" linkIndex="3" dir="s" state="o"/>
    <connection from="4i" to="2o" fromLane="0" toLane="3" via=":0_4_0" tl="0" linkIndex="4" dir="l" state="o"/>
    <connection from="4i" to="2o" fromLane="0" toLane="4" via=":0_5_0" tl="0" linkIndex="5" dir="l" state="o"/>
    <connection from="4o" to="54i" fromLane="0" toLane="0" via=":4_2_0" dir="s" state="M"/>
    <connection from="4o" to="4i" fromLane="0" toLane="0" via=":4_3_0" dir="t" state="m"/>
    <connection from="51i" to="51o" fromLane="0" toLane="0" via=":51_0_0" dir="t" state="M"/>