<routes>
        <vType id="carWE" accel="30" decel="60" sigma="0.5" length="4.5" minGap="2.5" maxSpeed="60" guiShape="passenger"/>
        <vType id="carNS" accel="30" decel="60" sigma="0.5" length="4.5" minGap="2.5" maxSpeed="60"/>

        <vType id="motorWE" accel="60" decel="90" sigma="0.5" length="2.5" minGap="2.5" maxSpeed="90" guiShape="passenger"/>
        <vType id="motorNS" accel="60" decel="90" sigma="0.5" length="2.5" minGap="2.5" maxSpeed="90"/>

        <vType id="busWE" accel="15" decel="30" sigma="0.5" length="14" minGap="2.5" maxSpeed="30" guiShape="passenger"/>
        <vType id="busNS" accel="15" decel="30" sigma="0.5" length="2.5" minGap="2.5" maxSpeed="30"/>



        <route id="right" edges="51o 1i 2o 52i" />
        <route id="rightDown" edges="51o 1i 3o 53i" />

        <route id="left" edges="52o 2i 1o 51i" />
        <route id="leftUp" edges="52o 2i 4o 54i" />

        <route id="up" edges="53o 3i 4o 54i" />
        <route id="upRight" edges="53o 3i 2o 52i" />

        <route id="down" edges="54o 4i 3o 53i" />
        <route id="downLeft" edges="54o 4i 1o 51i" />

        
    <vehicle id="right_0" type="carWE" route="right" depart="1" />
    <vehicle id="left_1" type="carWE" route="left" depart="1" />
    <vehicle id="down_2" type="carNS" route="downLeft" depart="1" color="1,0,0"/>
    <vehicle id="up_3" type="carNS" route="upRight" depart="1" color="1,0,0"/>
    <vehicle id="right_4" type="carWE" route="rightDown" depart="4" />
    <vehicle id="left_5" type="carWE" route="leftUp" depart="4" />
    <vehicle id="down_6" type="carNS" route="down" depart="4" color="1,0,0"/>
    <vehicle id="up_7" type="carNS" route="up" depart="4" color="1,0,0"/>
    <vehicle id="right_8" type="carWE" route="right" depart="7" />
    <vehicle id="left_9" type="carWE" route="left" depart="7" />
    <vehicle id="down_10" type="carNS" route="down" depart="7" color="1,0,0"/>
    <vehicle id="up_11" type="carNS" route="up" depart="7" color="1,0,0"/>
    <vehicle id="right_12" type="carWE" route="right" depart="10" />
    <vehicle id="left_13" type="carWE" route="left" depart="10" />
    <vehicle id="down_14" type="carNS" route="down" depart="10" color="1,0,0"/>
    <vehicle id="up_15" type="carNS" route="up" depart="10" color="1,0,0"/>
    <vehicle id="right_16" type="carWE" route="rightDown" depart="13" />
    <vehicle id="left_17" type="carWE" route="leftUp" depart="13" />
    <vehicle id="down_18" type="carNS" route="down" depart="13" color="1,0,0"/>
    <vehicle id="up_19" type="carNS" route="up" depart="13" color="1,0,0"/>
    <vehicle id="right_20" type="busWE" route="right" depart="16" />
    <vehicle id="left_21" type="busWE" route="left" depart="16" />
    <vehicle id="down_22" type="busNS" route="down" depart="16" color="1,0,0"/>
    <vehicle id="up_23" type="busNS" route="up" depart="16" color="1,0,0"/>
    <vehicle id="right_24" type="carWE" route="right" depart="19" />
    <vehicle id="left_25" type="carWE" route="left" depart="19" />
    <vehicle id="down_26" type="carNS" route="down" depart="19" color="1,0,0"/>
    <vehicle id="up_27" type="carNS" route="up" depart="19" color="1,0,0"/>
    <vehicle id="right_28" type="busWE" route="right" depart="22" />
    <vehicle id="left_29" type="busWE" route="left" depart="22" />
    <vehicle id="down_30" type="busNS" route="down" depart="22" color="1,0,0"/>
    <vehicle id="up_31" type="busNS" route="up" depart="22" color="1,0,0"/>
    <vehicle id="right_32" type="carWE" route="right" depart="25" />
    <vehicle id="left_33" type="carWE" route="left" depart="25" />
    <vehicle id="down_34" type="carNS" route="down" depart="25" color="1,0,0"/>
    <vehicle id="up_35" type="carNS" route="up" depart="25" color="1,0,0"/>
    <vehicle id="right_36" type="carWE" route="rightDown" depart="28" />
    <vehicle id="left_37" type="carWE" route="leftUp" depart="28" />
    <vehicle id="down_38" type="carNS" route="down" depart="28" color="1,0,0"/>
    <vehicle id="up_39" type="carNS" route="up" depart="28" color="1,0,0"/>
    <vehicle id="right_40" type="busWE" route="rightDown" depart="31" />
    <vehicle id="left_41" type="busWE" route="leftUp" depart="31" />
    <vehicle id="down_42" type="busNS" route="downLeft" depart="31" color="1,0,0"/>
    <vehicle id="up_43" type="busNS" route="upRight" depart="31" color="1,0,0"/>
    <vehicle id="right_44" type="carWE" route="right" depart="34" />
    <vehicle id="left_45" type="carWE" route="left" depart="34" />
    <vehicle id="down_46" type="carNS" route="downLeft" depart="34" color="1,0,0"/>
    <vehicle id="up_47" type="carNS" route="upRight" depart="34" color="1,0,0"/>
    <vehicle id="right_48" type="carWE" route="right" depart="37" />
    <vehicle id="left_49" type="carWE" route="left" depart="37" />
    <vehicle id="down_50" type="carNS" route="downLeft" depart="37" color="1,0,0"/>
    <vehicle id="up_51" type="carNS" route="upRight" depart="37" color="1,0,0"/>
    <vehicle id="right_52" type="carWE" route="right" depart="40" />
    <vehicle id="left_53" type="carWE" route="left" depart="40" />
    <vehicle id="down_54" type="carNS" route="downLeft" depart="40" color="1,0,0"/>
    <vehicle id="up_55" type="carNS" route="upRight" depart="40" color="1,0,0"/>
    <vehicle id="right_56" type="carWE" route="rightDown" depart="43" />
    <vehicle id="left_57" type="carWE" route="leftUp" depart="43" />
    <vehicle id="down_58" type="carNS" route="down" depart="43" color="1,0,0"/>
    <vehicle id="up_59" type="carNS" route="up" depart="43" color="1,0,0"/>
    <vehicle id="right_60" type="carWE" route="right" depart="46" />
    <vehicle id="left_61" type="carWE" route="left" depart="46" />
    <vehicle id="down_62" type="carNS" route="down" depart="46" color="1,0,0"/>
    <vehicle id="up_63" type="carNS" route="up" depart="46" color="1,0,0"/>
    <vehicle id="right_64" type="carWE" route="right" depart="49" />
    <vehicle id="left_65" type="carWE" route="left" depart="49" />
    <vehicle id="down_66" type="carNS" route="down" depart="49" color="1,0,0"/>
    <vehicle id="up_67" type="carNS" route="up" depart="49" color="1,0,0"/>
    <vehicle id="right_68" type="carWE" route="rightDown" depart="52" />
    <vehicle id="left_69" type="carWE" route="leftUp" depart="52" />
    <vehicle id="down_70" type="carNS" route="down" depart="52" color="1,0,0"/>
    <vehicle id="up_71" type="carNS" route="up" depart="52" color="1,0,0"/>
    <vehicle id="right_72" type="carWE" route="right" depart="55" />
    <vehicle id="left_73" type="carWE" route="left" depart="55" />
    <vehicle id="down_74" type="carNS" route="downLeft" depart="55" color="1,0,0"/>
    <vehicle id="up_75" type="carNS" route="upRight" depart="55" color="1,0,0"/>
    <vehicle id="right_76" type="carWE" route="right" depart="58" />
    <vehicle id="left_77" type="carWE" route="left" depart="58" />
    <vehicle id="down_78" type="carNS" route="down" depart="58" color="1,0,0"/>
    <vehicle id="up_79" type="carNS" route="up" depart="58" color="1,0,0"/>
    <vehicle id="right_80" type="motorWE" route="rightDown" depart="61" />
    <vehicle id="left_81" type="motorWE" route="leftUp" depart="61" />
    <vehicle id="down_82" type="motorNS" route="down" depart="61" color="1,0,0"/>
    <vehicle id="up_83" type="motorNS" route="up" depart="61" color="1,0,0"/>
    <vehicle id="right_84" type="carWE" route="right" depart="64" />
    <vehicle id="left_85" type="carWE" route="left" depart="64" />
    <vehicle id="down_86" type="carNS" route="downLeft" depart="64" color="1,0,0"/>
    <vehicle id="up_87" type="carNS" route="upRight" depart="64" color="1,0,0"/>
    <vehicle id="right_88" type="carWE" route="right" depart="67" />
    <vehicle id="left_89" type="carWE" route="left" depart="67" />
    <vehicle id="down_90" type="carNS" route="down" depart="67" color="1,0,0"/>
    <vehicle id="up_91" type="carNS" route="up" depart="67" color="1,0,0"/>
    <vehicle id="right_92" type="carWE" route="right" depart="70" />
    <vehicle id="left_93" type="carWE" route="left" depart="70" />
    <vehicle id="down_94" type="carNS" route="down" depart="70" color="1,0,0"/>
    <vehicle id="up_95" type="carNS" route="up" depart="70" color="1,0,0"/>
    <vehicle id="right_96" type="carWE" route="right" depart="73" />
    <vehicle id="left_97" type="carWE" route="left" depart="73" />
    <vehicle id="down_98" type="carNS" route="downLeft" depart="73" color="1,0,0"/>
    <vehicle id="up_99" type="carNS" route="upRight" depart="73" color="1,0,0"/>
    <vehicle id="right_100" type="carWE" route="right" depart="76" />
    <vehicle id="left_101" type="carWE" route="left" depart="76" />
    <vehicle id="down_102" type="carNS" route="down" depart="76" color="1,0,0"/>
    <vehicle id="up_103" type="carNS" route="up" depart="76" color="1,0,0"/>
    <vehicle id="right_104" type="carWE" route="right" depart="79" />
    <vehicle id="left_105" type="carWE" route="left" depart="79" />
    <vehicle id="down_106" type="carNS" route="down" depart="79" color="1,0,0"/>
    <vehicle id="up_107" type="carNS" route="up" depart="79" color="1,0,0"/>
    <vehicle id="right_108" type="carWE" route="rightDown" depart="82" />
    <vehicle id="left_109" type="carWE" route="leftUp" depart="82" />
    <vehicle id="down_110" type="carNS" route="down" depart="82" color="1,0,0"/>
    <vehicle id="up_111" type="carNS" route="up" depart="82" color="1,0,0"/>
    <vehicle id="right_112" type="carWE" route="right" depart="85" />
    <vehicle id="left_113" type="carWE" route="left" depart="85" />
    <vehicle id="down_114" type="carNS" route="down" depart="85" color="1,0,0"/>
    <vehicle id="up_115" type="carNS" route="up" depart="85" color="1,0,0"/>
    <vehicle id="right_116" type="carWE" route="right" depart="88" />
    <vehicle id="left_117" type="carWE" route="left" depart="88" />
    <vehicle id="down_118" type="carNS" route="downLeft" depart="88" color="1,0,0"/>
    <vehicle id="up_119" type="carNS" route="upRight" depart="88" color="1,0,0"/>
    <vehicle id="right_120" type="carWE" route="right" depart="91" />
    <vehicle id="left_121" type="carWE" route="left" depart="91" />
    <vehicle id="down_122" type="carNS" route="down" depart="91" color="1,0,0"/>
    <vehicle id="up_123" type="carNS" route="up" depart="91" color="1,0,0"/>
    <vehicle id="right_124" type="carWE" route="right" depart="94" />
    <vehicle id="left_125" type="carWE" route="left" depart="94" />
    <vehicle id="down_126" type="carNS" route="down" depart="94" color="1,0,0"/>
    <vehicle id="up_127" type="carNS" route="up" depart="94" color="1,0,0"/>
    <vehicle id="right_128" type="carWE" route="rightDown" depart="97" />
    <vehicle id="left_129" type="carWE" route="leftUp" depart="97" />
    <vehicle id="down_130" type="carNS" route="down" depart="97" color="1,0,0"/>
    <vehicle id="up_131" type="carNS" route="up" depart="97" color="1,0,0"/>
    <vehicle id="right_132" type="carWE" route="right" depart="100" />
    <vehicle id="left_133" type="carWE" route="left" depart="100" />
    <vehicle id="down_134" type="carNS" route="downLeft" depart="100" color="1,0,0"/>
    <vehicle id="up_135" type="carNS" route="upRight" depart="100" color="1,0,0"/>
    <vehicle id="right_136" type="carWE" route="rightDown" depart="103" />
    <vehicle id="left_137" type="carWE" route="leftUp" depart="103" />
    <vehicle id="down_138" type="carNS" route="down" depart="103" color="1,0,0"/>
    <vehicle id="up_139" type="carNS" route="up" depart="103" color="1,0,0"/>
    <vehicle id="right_140" type="carWE" route="right" depart="106" />
    <vehicle id="left_141" type="carWE" route="left" depart="106" />
    <vehicle id="down_142" type="carNS" route="down" depart="106" color="1,0,0"/>
    <vehicle id="up_143" type="carNS" route="up" depart="106" color="1,0,0"/>
    <vehicle id="right_144" type="carWE" route="rightDown" depart="109" />
    <vehicle id="left_145" type="carWE" route="leftUp" depart="109" />
    <vehicle id="down_146" type="carNS" route="down" depart="109" color="1,0,0"/>
    <vehicle id="up_147" type="carNS" route="up" depart="109" color="1,0,0"/>
    <vehicle id="right_148" type="busWE" route="right" depart="112" />
    <vehicle id="left_149" type="busWE" route="left" depart="112" />
    <vehicle id="down_150" type="busNS" route="down" depart="112" color="1,0,0"/>
    <vehicle id="up_151" type="busNS" route="up" depart="112" color="1,0,0"/>
    <vehicle id="right_152" type="carWE" route="right" depart="115" />
    <vehicle id="left_153" type="carWE" route="left" depart="115" />
    <vehicle id="down_154" type="carNS" route="down" depart="115" color="1,0,0"/>
    <vehicle id="up_155" type="carNS" route="up" depart="115" color="1,0,0"/>
    <vehicle id="right_156" type="carWE" route="right" depart="118" />
    <vehicle id="left_157" type="carWE" route="left" depart="118" />
    <vehicle id="down_158" type="carNS" route="downLeft" depart="118" color="1,0,0"/>
    <vehicle id="up_159" type="carNS" route="upRight" depart="118" color="1,0,0"/>
    <vehicle id="right_160" type="carWE" route="right" depart="121" />
    <vehicle id="left_161" type="carWE" route="left" depart="121" />
    <vehicle id="down_162" type="carNS" route="down" depart="121" color="1,0,0"/>
    <vehicle id="up_163" type="carNS" route="up" depart="121" color="1,0,0"/>
    <vehicle id="right_164" type="busWE" route="right" depart="124" />
    <vehicle id="left_165" type="busWE" route="left" depart="124" />
    <vehicle id="down_166" type="busNS" route="downLeft" depart="124" color="1,0,0"/>
    <vehicle id="up_167" type="busNS" route="upRight" depart="124" color="1,0,0"/>
    <vehicle id="right_168" type="carWE" route="right" depart="127" />
    <vehicle id="left_169" type="carWE" route="left" depart="127" />
    <vehicle id="down_170" type="carNS" route="down" depart="127" color="1,0,0"/>
    <vehicle id="up_171" type="carNS" route="up" depart="127" color="1,0,0"/>
    <vehicle id="right_172" type="carWE" route="right" depart="130" />
    <vehicle id="left_173" type="carWE" route="left" depart="130" />
    <vehicle id="down_174" type="carNS" route="down" depart="130" color="1,0,0"/>
    <vehicle id="up_175" type="carNS" route="up" depart="130" color="1,0,0"/>
    <vehicle id="right_176" type="carWE" route="right" depart="133" />
    <vehicle id="left_177" type="carWE" route="left" depart="133" />
    <vehicle id="down_178" type="carNS" route="down" depart="133" color="1,0,0"/>
    <vehicle id="up_179" type="carNS" route="up" depart="133" color="1,0,0"/>
    <vehicle id="right_180" type="carWE" route="right" depart="136" />
    <vehicle id="left_181" type="carWE" route="left" depart="136" />
    <vehicle id="down_182" type="carNS" route="down" depart="136" color="1,0,0"/>
    <vehicle id="up_183" type="carNS" route="up" depart="136" color="1,0,0"/>
    <vehicle id="right_184" type="carWE" route="right" depart="139" />
    <vehicle id="left_185" type="carWE" route="left" depart="139" />
    <vehicle id="down_186" type="carNS" route="downLeft" depart="139" color="1,0,0"/>
    <vehicle id="up_187" type="carNS" route="upRight" depart="139" color="1,0,0"/>
    <vehicle id="right_188" type="carWE" route="right" depart="142" />
    <vehicle id="left_189" type="carWE" route="left" depart="142" />
    <vehicle id="down_190" type="carNS" route="down" depart="142" color="1,0,0"/>
    <vehicle id="up_191" type="carNS" route="up" depart="142" color="1,0,0"/>
    <vehicle id="right_192" type="carWE" route="rightDown" depart="145" />
    <vehicle id="left_193" type="carWE" route="leftUp" depart="145" />
    <vehicle id="down_194" type="carNS" route="down" depart="145" color="1,0,0"/>
    <vehicle id="up_195" type="carNS" route="up" depart="145" color="1,0,0"/>
    <vehicle id="right_196" type="carWE" route="right" depart="148" />
    <vehicle id="left_197" type="carWE" route="left" depart="148" />
    <vehicle id="down_198" type="carNS" route="downLeft" depart="148" color="1,0,0"/>
    <vehicle id="up_199" type="carNS" route="upRight" depart="148" color="1,0,0"/>
    <vehicle id="right_200" type="carWE" route="rightDown" depart="151" />
    <vehicle id="left_201" type="carWE" route="leftUp" depart="151" />
    <vehicle id="down_202" type="carNS" route="down" depart="151" color="1,0,0"/>
    <vehicle id="up_203" type="carNS" route="up" depart="151" color="1,0,0"/>
    <vehicle id="right_204" type="carWE" route="right" depart="154" />
    <vehicle id="left_205" type="carWE" route="left" depart="154" />
    <vehicle id="down_206" type="carNS" route="down" depart="154" color="1,0,0"/>
    <vehicle id="up_207" type="carNS" route="up" depart="154" color="1,0,0"/>
    <vehicle id="right_208" type="carWE" route="right" depart="157" />
    <vehicle id="left_209" type="carWE" route="left" depart="157" />
    <vehicle id="down_210" type="carNS" route="down" depart="157" color="1,0,0"/>
    <vehicle id="up_211" type="carNS" route="up" depart="157" color="1,0,0"/>
    <vehicle id="right_212" type="carWE" route="right" depart="160" />
    <vehicle id="left_213" type="carWE" route="left" depart="160" />
    <vehicle id="down_214" type="carNS" route="down" depart="160" color="1,0,0"/>
    <vehicle id="up_215" type="carNS" route="up" depart="160" color="1,0,0"/>
    <vehicle id="right_216" type="carWE" route="rightDown" depart="163" />
    <vehicle id="left_217" type="carWE" route="leftUp" depart="163" />
    <vehicle id="down_218" type="carNS" route="down" depart="163" color="1,0,0"/>
    <vehicle id="up_219" type="carNS" route="up" depart="163" color="1,0,0"/>
    <vehicle id="right_220" type="carWE" route="right" depart="166" />
    <vehicle id="left_221" type="carWE" route="left" depart="166" />
    <vehicle id="down_222" type="carNS" route="down" depart="166" color="1,0,0"/>
    <vehicle id="up_223" type="carNS" route="up" depart="166" color="1,0,0"/>
    <vehicle id="right_224" type="carWE" route="right" depart="169" />
    <vehicle id="left_225" type="carWE" route="left" depart="169" />
    <vehicle id="down_226" type="carNS" route="down" depart="169" color="1,0,0"/>
    <vehicle id="up_227" type="carNS" route="up" depart="169" color="1,0,0"/>
    <vehicle id="right_228" type="carWE" route="rightDown" depart="172" />
    <vehicle id="left_229" type="carWE" route="leftUp" depart="172" />
    <vehicle id="down_230" type="carNS" route="down" depart="172" color="1,0,0"/>
    <vehicle id="up_231" type="carNS" route="up" depart="172" color="1,0,0"/>
    <vehicle id="right_232" type="carWE" route="rightDown" depart="175" />
    <vehicle id="left_233" type="carWE" route="leftUp" depart="175" />
    <vehicle id="down_234" type="carNS" route="down" depart="175" color="1,0,0"/>
    <vehicle id="up_235" type="carNS" route="up" depart="175" color="1,0,0"/>
    <vehicle id="right_236" type="carWE" route="rightDown" depart="178" />
    <vehicle id="left_237" type="carWE" route="leftUp" depart="178" />
    <vehicle id="down_238" type="carNS" route="downLeft" depart="178" color="1,0,0"/>
    <vehicle id="up_239" type="carNS" route="upRight" depart="178" color="1,0,0"/>
    <vehicle id="right_240" type="carWE" route="right" depart="181" />
    <vehicle id="left_241" type="carWE" route="left" depart="181" />
    <vehicle id="down_242" type="carNS" route="downLeft" depart="181" color="1,0,0"/>
    <vehicle id="up_243" type="carNS" route="upRight" depart="181" color="1,0,0"/>
    <vehicle id="right_244" type="carWE" route="rightDown" depart="184" />
    <vehicle id="left_245" type="carWE" route="leftUp" depart="184" />
    <vehicle id="down_246" type="carNS" route="downLeft" depart="184" color="1,0,0"/>
    <vehicle id="up_247" type="carNS" route="upRight" depart="184" color="1,0,0"/>
    <vehicle id="right_248" type="busWE" route="right" depart="187" />
    <vehicle id="left_249" type="busWE" route="left" depart="187" />
    <vehicle id="down_250" type="busNS" route="downLeft" depart="187" color="1,0,0"/>
    <vehicle id="up_251" type="busNS" route="upRight" depart="187" color="1,0,0"/>
    <vehicle id="right_252" type="carWE" route="right" depart="190" />
    <vehicle id="left_253" type="carWE" route="left" depart="190" />
    <vehicle id="down_254" type="carNS" route="down" depart="190" color="1,0,0"/>
    <vehicle id="up_255" type="carNS" route="up" depart="190" color="1,0,0"/>
    <vehicle id="right_256" type="carWE" route="right" depart="193" />
    <vehicle id="left_257" type="carWE" route="left" depart="193" />
    <vehicle id="down_258" type="carNS" route="downLeft" depart="193" color="1,0,0"/>
    <vehicle id="up_259" type="carNS" route="upRight" depart="193" color="1,0,0"/>
    <vehicle id="right_260" type="carWE" route="rightDown" depart="196" />
    <vehicle id="left_261" type="carWE" route="leftUp" depart="196" />
    <vehicle id="down_262" type="carNS" route="down" depart="196" color="1,0,0"/>
    <vehicle id="up_263" type="carNS" route="up" depart="196" color="1,0,0"/>
    <vehicle id="right_264" type="carWE" route="rightDown" depart="199" />
    <vehicle id="left_265" type="carWE" route="leftUp" depart="199" />
    <vehicle id="down_266" type="carNS" route="downLeft" depart="199" color="1,0,0"/>
    <vehicle id="up_267" type="carNS" route="upRight" depart="199" color="1,0,0"/>
    <vehicle id="right_268" type="carWE" route="right" depart="202" />
    <vehicle id="left_269" type="carWE" route="left" depart="202" />
    <vehicle id="down_270" type="carNS" route="down" depart="202" color="1,0,0"/>
    <vehicle id="up_271" type="carNS" route="up" depart="202" color="1,0,0"/>
    <vehicle id="right_272" type="carWE" route="right" depart="205" />
    <vehicle id="left_273" type="carWE" route="left" depart="205" />
    <vehicle id="down_274" type="carNS" route="down" depart="205" color="1,0,0"/>
    <vehicle id="up_275" type="carNS" route="up" depart="205" color="1,0,0"/>
    <vehicle id="right_276" type="carWE" route="right" depart="208" />
    <vehicle id="left_277" type="carWE" route="left" depart="208" />
    <vehicle id="down_278" type="carNS" route="down" depart="208" color="1,0,0"/>
    <vehicle id="up_279" type="carNS" route="up" depart="208" color="1,0,0"/>
    <vehicle id="right_280" type="carWE" route="right" depart="211" />
    <vehicle id="left_281" type="carWE" route="left" depart="211" />
    <vehicle id="down_282" type="carNS" route="down" depart="211" color="1,0,0"/>
    <vehicle id="up_283" type="carNS" route="up" depart="211" color="1,0,0"/>
    <vehicle id="right_284" type="carWE" route="right" depart="214" />
    <vehicle id="left_285" type="carWE" route="left" depart="214" />
    <vehicle id="down_286" type="carNS" route="downLeft" depart="214" color="1,0,0"/>
    <vehicle id="up_287" type="carNS" route="upRight" depart="214" color="1,0,0"/>
    <vehicle id="right_288" type="busWE" route="right" depart="217" />
    <vehicle id="left_289" type="busWE" route="left" depart="217" />
    <vehicle id="down_290" type="busNS" route="down" depart="217" color="1,0,0"/>
    <vehicle id="up_291" type="busNS" route="up" depart="217" color="1,0,0"/>
    <vehicle id="right_292" type="carWE" route="right" depart="220" />
    <vehicle id="left_293" type="carWE" route="left" depart="220" />
    <vehicle id="down_294" type="carNS" route="downLeft" depart="220" color="1,0,0"/>
    <vehicle id="up_295" type="carNS" route="upRight" depart="220" color="1,0,0"/>
    <vehicle id="right_296" type="carWE" route="rightDown" depart="223" />
    <vehicle id="left_297" type="carWE" route="leftUp" depart="223" />
    <vehicle id="down_298" type="carNS" route="down" depart="223" color="1,0,0"/>
    <vehicle id="up_299" type="carNS" route="up" depart="223" color="1,0,0"/>
    <vehicle id="right_300" type="carWE" route="right" depart="226" />
    <vehicle id="left_301" type="carWE" route="left" depart="226" />
    <vehicle id="down_302" type="carNS" route="downLeft" depart="226" color="1,0,0"/>
    <vehicle id="up_303" type="carNS" route="upRight" depart="226" color="1,0,0"/>
    <vehicle id="right_304" type="carWE" route="right" depart="229" />
    <vehicle id="left_305" type="carWE" route="left" depart="229" />
    <vehicle id="down_306" type="carNS" route="downLeft" depart="229" color="1,0,0"/>
    <vehicle id="up_307" type="carNS" route="upRight" depart="229" color="1,0,0"/>
    <vehicle id="right_308" type="carWE" route="rightDown" depart="232" />
    <vehicle id="left_309" type="carWE" route="leftUp" depart="232" />
    <vehicle id="down_310" type="carNS" route="down" depart="232" color="1,0,0"/>
    <vehicle id="up_311" type="carNS" route="up" depart="232" color="1,0,0"/>
    <vehicle id="right_312" type="carWE" route="rightDown" depart="235" />
    <vehicle id="left_313" type="carWE" route="leftUp" depart="235" />
    <vehicle id="down_314" type="carNS" route="down" depart="235" color="1,0,0"/>
    <vehicle id="up_315" type="carNS" route="up" depart="235" color="1,0,0"/>
    <vehicle id="right_316" type="carWE" route="right" depart="238" />
    <vehicle id="left_317" type="carWE" route="left" depart="238" />
    <vehicle id="down_318" type="carNS" route="down" depart="238" color="1,0,0"/>
    <vehicle id="up_319" type="carNS" route="up" depart="238" color="1,0,0"/>
    <vehicle id="right_320" type="carWE" route="right" depart="241" />
    <vehicle id="left_321" type="carWE" route="left" depart="241" />
    <vehicle id="down_322" type="carNS" route="down" depart="241" color="1,0,0"/>
    <vehicle id="up_323" type="carNS" route="up" depart="241" color="1,0,0"/>
    <vehicle id="right_324" type="carWE" route="rightDown" depart="244" />
    <vehicle id="left_325" type="carWE" route="leftUp" depart="244" />
    <vehicle id="down_326" type="carNS" route="down" depart="244" color="1,0,0"/>
    <vehicle id="up_327" type="carNS" route="up" depart="244" color="1,0,0"/>
    <vehicle id="right_328" type="carWE" route="right" depart="247" />
    <vehicle id="left_329" type="carWE" route="left" depart="247" />
    <vehicle id="down_330" type="carNS" route="down" depart="247" color="1,0,0"/>
    <vehicle id="up_331" type="carNS" route="up" depart="247" color="1,0,0"/>
    <vehicle id="right_332" type="carWE" route="right" depart="250" />
    <vehicle id="left_333" type="carWE" route="left" depart="250" />
    <vehicle id="down_334" type="carNS" route="down" depart="250" color="1,0,0"/>
    <vehicle id="up_335" type="carNS" route="up" depart="250" color="1,0,0"/>
    <vehicle id="right_336" type="busWE" route="right" depart="253" />
    <vehicle id="left_337" type="busWE" route="left" depart="253" />
    <vehicle id="down_338" type="busNS" route="down" depart="253" color="1,0,0"/>
    <vehicle id="up_339" type="busNS" route="up" depart="253" color="1,0,0"/>
    <vehicle id="right_340" type="carWE" route="right" depart="256" />
    <vehicle id="left_341" type="carWE" route="left" depart="256" />
    <vehicle id="down_342" type="carNS" route="down" depart="256" color="1,0,0"/>
    <vehicle id="up_343" type="carNS" route="up" depart="256" color="1,0,0"/>
    <vehicle id="right_344" type="carWE" route="right" depart="259" />
    <vehicle id="left_345" type="carWE" route="left" depart="259" />
    <vehicle id="down_346" type="carNS" route="downLeft" depart="259" color="1,0,0"/>
    <vehicle id="up_347" type="carNS" route="upRight" depart="259" color="1,0,0"/>
    <vehicle id="right_348" type="carWE" route="right" depart="262" />
    <vehicle id="left_349" type="carWE" route="left" depart="262" />
    <vehicle id="down_350" type="carNS" route="downLeft" depart="262" color="1,0,0"/>
    <vehicle id="up_351" type="carNS" route="upRight" depart="262" color="1,0,0"/>
    <vehicle id="right_352" type="carWE" route="rightDown" depart="265" />
    <vehicle id="left_353" type="carWE" route="leftUp" depart="265" />
    <vehicle id="down_354" type="carNS" route="down" depart="265" color="1,0,0"/>
    <vehicle id="up_355" type="carNS" route="up" depart="265" color="1,0,0"/>
    <vehicle id="right_356" type="busWE" route="rightDown" depart="268" />
    <vehicle id="left_357" type="busWE" route="leftUp" depart="268" />
    <vehicle id="down_358" type="busNS" route="down" depart="268" color="1,0,0"/>
    <vehicle id="up_359" type="busNS" route="up" depart="268" color="1,0,0"/>
    <vehicle id="right_360" type="carWE" route="right" depart="271" />
    <vehicle id="left_361" type="carWE" route="left" depart="271" />
    <vehicle id="down_362" type="carNS" route="downLeft" depart="271" color="1,0,0"/>
    <vehicle id="up_363" type="carNS" route="upRight" depart="271" color="1,0,0"/>
    <vehicle id="right_364" type="carWE" route="right" depart="274" />
    <vehicle id="left_365" type="carWE" route="left" depart="274" />
    <vehicle id="down_366" type="carNS" route="down" depart="274" color="1,0,0"/>
    <vehicle id="up_367" type="carNS" route="up" depart="274" color="1,0,0"/>
    <vehicle id="right_368" type="motorWE" route="rightDown" depart="277" />
    <vehicle id="left_369" type="motorWE" route="leftUp" depart="277" />
    <vehicle id="down_370" type="motorNS" route="down" depart="277" color="1,0,0"/>
    <vehicle id="up_371" type="motorNS" route="up" depart="277" color="1,0,0"/>
    <vehicle id="right_372" type="busWE" route="right" depart="280" />
    <vehicle id="left_373" type="busWE" route="left" depart="280" />
    <vehicle id="down_374" type="busNS" route="downLeft" depart="280" color="1,0,0"/>
    <vehicle id="up_375" type="busNS" route="upRight" depart="280" color="1,0,0"/>
    <vehicle id="right_376" type="carWE" route="right" depart="283" />
    <vehicle id="left_377" type="carWE" route="left" depart="283" />
    <vehicle id="down_378" type="carNS" route="downLeft" depart="283" color="1,0,0"/>
    <vehicle id="up_379" type="carNS" route="upRight" depart="283" color="1,0,0"/>
    <vehicle id="right_380" type="carWE" route="right" depart="286" />
    <vehicle id="left_381" type="carWE" route="left" depart="286" />